Version 4
SHEET 1 3632 760
WIRE -128 -64 -256 -64
WIRE 64 -64 -48 -64
WIRE 480 -64 208 -64
WIRE 944 -64 480 -64
WIRE 1424 -64 944 -64
WIRE 1904 -64 1424 -64
WIRE -256 64 -256 -64
WIRE -208 64 -256 64
WIRE 64 64 64 -64
WIRE 64 64 16 64
WIRE 816 64 736 64
WIRE 1024 64 880 64
WIRE 1296 64 1216 64
WIRE 1504 64 1360 64
WIRE 1776 64 1696 64
WIRE 1984 64 1840 64
WIRE -208 128 -288 128
WIRE -368 176 -384 176
WIRE -224 176 -288 176
WIRE 480 176 480 -64
WIRE 944 176 944 -64
WIRE 1424 176 1424 -64
WIRE 1904 176 1904 -64
WIRE -224 192 -224 176
WIRE -208 192 -224 192
WIRE 192 192 16 192
WIRE 336 192 256 192
WIRE 448 192 336 192
WIRE 656 192 576 192
WIRE 736 192 736 64
WIRE 912 192 816 192
WIRE 1136 192 1040 192
WIRE 1216 192 1216 64
WIRE 1392 192 1296 192
WIRE 1616 192 1520 192
WIRE 1696 192 1696 64
WIRE 1872 192 1776 192
WIRE 2096 192 2000 192
WIRE 560 208 512 208
WIRE 576 208 576 192
WIRE 576 208 560 208
WIRE 1024 208 1024 64
WIRE 1024 208 976 208
WIRE 1040 208 1040 192
WIRE 1040 208 1024 208
WIRE 1504 208 1504 64
WIRE 1504 208 1456 208
WIRE 1520 208 1520 192
WIRE 1520 208 1504 208
WIRE 1984 208 1984 64
WIRE 1984 208 1936 208
WIRE 2000 208 2000 192
WIRE 2000 208 1984 208
WIRE 448 224 432 224
WIRE 912 224 896 224
WIRE 1392 224 1376 224
WIRE 1872 224 1856 224
WIRE 32 256 16 256
WIRE 432 288 432 224
WIRE 560 288 560 208
WIRE 560 288 432 288
WIRE 896 288 896 224
WIRE 1024 288 896 288
WIRE 1376 288 1376 224
WIRE 1504 288 1376 288
WIRE 1856 288 1856 224
WIRE 1984 288 1856 288
WIRE 480 368 480 240
WIRE 480 368 192 368
WIRE 192 432 192 368
WIRE 480 464 480 368
WIRE 944 464 944 240
WIRE 944 464 480 464
WIRE 1424 464 1424 240
WIRE 1424 464 944 464
WIRE 1904 464 1904 240
WIRE 1904 464 1424 464
FLAG 96 128 0
FLAG -288 256 0
FLAG 32 256 0
FLAG 208 -144 0
FLAG 192 512 0
FLAG 1296 256 0
FLAG 816 256 0
FLAG -288 128 0
FLAG -384 176 0
FLAG 2096 192 Vout
IOPIN 2096 192 Out
FLAG 336 272 0
FLAG 1504 368 0
FLAG 1024 368 0
FLAG 1776 256 0
FLAG 1984 368 0
SYMBOL LF356 480 272 M180
SYMATTR InstName U1
SYMBOL INA126 -96 160 R0
SYMATTR InstName U2
SYMBOL voltage 0 128 R270
WINDOW 0 32 56 VTop 2
WINDOW 3 -32 56 VBottom 2
WINDOW 123 0 0 Left 0
WINDOW 39 0 0 Left 0
SYMATTR InstName V1
SYMATTR Value 5
SYMBOL voltage -192 256 R90
WINDOW 0 -32 56 VBottom 2
WINDOW 3 32 56 VTop 2
WINDOW 123 0 0 Left 0
WINDOW 39 0 0 Left 0
SYMATTR InstName V2
SYMATTR Value -5
SYMBOL voltage -272 176 R90
WINDOW 0 -32 56 VBottom 2
WINDOW 3 32 56 VTop 2
WINDOW 123 60 56 VTop 2
WINDOW 39 0 0 Left 0
SYMATTR InstName V3
SYMATTR Value SINE(0 10u 15)
SYMATTR Value2 AC 1
SYMBOL voltage 208 -48 R180
WINDOW 0 24 96 Left 2
WINDOW 3 24 16 Left 2
WINDOW 123 0 0 Left 0
WINDOW 39 0 0 Left 0
SYMATTR InstName V4
SYMATTR Value -5
SYMBOL voltage 192 416 R0
WINDOW 123 0 0 Left 0
WINDOW 39 0 0 Left 0
SYMATTR InstName V5
SYMATTR Value 5
SYMBOL LF356 944 272 M180
SYMATTR InstName U3
SYMBOL res 752 176 R90
WINDOW 0 0 56 VBottom 2
WINDOW 3 32 56 VTop 2
SYMATTR InstName R3
SYMATTR Value 3.9k
SYMBOL res 832 176 R90
WINDOW 0 0 56 VBottom 2
WINDOW 3 32 56 VTop 2
SYMATTR InstName R4
SYMATTR Value 27k
SYMBOL cap 800 192 R0
SYMATTR InstName C3
SYMATTR Value 680n
SYMBOL cap 880 48 R90
WINDOW 0 0 32 VBottom 2
WINDOW 3 32 32 VTop 2
SYMATTR InstName C4
SYMATTR Value 680n
SYMBOL LF356 1424 272 M180
SYMATTR InstName U4
SYMBOL res 1232 176 R90
WINDOW 0 0 56 VBottom 2
WINDOW 3 32 56 VTop 2
SYMATTR InstName R5
SYMATTR Value 2.7k
SYMBOL res 1312 176 R90
WINDOW 0 0 56 VBottom 2
WINDOW 3 32 56 VTop 2
SYMATTR InstName R6
SYMATTR Value 39k
SYMBOL cap 1280 192 R0
SYMATTR InstName C5
SYMATTR Value 680n
SYMBOL cap 1360 48 R90
WINDOW 0 0 32 VBottom 2
WINDOW 3 32 32 VTop 2
SYMATTR InstName C6
SYMATTR Value 680n
SYMBOL cap 256 176 R90
WINDOW 0 0 32 VBottom 2
WINDOW 3 32 32 VTop 2
SYMATTR InstName C1
SYMATTR Value 10µ
SYMBOL res 320 176 R0
SYMATTR InstName R1
SYMATTR Value 15k
SYMBOL res -32 -80 R90
WINDOW 0 0 56 VBottom 2
WINDOW 3 32 56 VTop 2
SYMATTR InstName R2
SYMATTR Value 2k
SYMBOL res 1008 192 R0
SYMATTR InstName R7
SYMATTR Value 8.2k
SYMBOL res 1008 272 R0
SYMATTR InstName R8
SYMATTR Value 1.8k
SYMBOL res 1488 192 R0
SYMATTR InstName R9
SYMATTR Value 8.2k
SYMBOL res 1488 272 R0
SYMATTR InstName R10
SYMATTR Value 1.2k
SYMBOL LF356 1904 272 M180
SYMATTR InstName U5
SYMBOL res 1712 176 R90
WINDOW 0 0 56 VBottom 2
WINDOW 3 32 56 VTop 2
SYMATTR InstName R11
SYMATTR Value 8.2k
SYMBOL res 1792 176 R90
WINDOW 0 0 56 VBottom 2
WINDOW 3 32 56 VTop 2
SYMATTR InstName R12
SYMATTR Value 150k
SYMBOL cap 1760 192 R0
SYMATTR InstName C2
SYMATTR Value 68n
SYMBOL cap 1840 48 R90
WINDOW 0 0 32 VBottom 2
WINDOW 3 32 32 VTop 2
SYMATTR InstName C7
SYMATTR Value 680n
SYMBOL res 1968 192 R0
SYMATTR InstName R13
SYMATTR Value 5.6k
SYMBOL res 1968 272 R0
SYMATTR InstName R14
SYMATTR Value 4.7k
TEXT -392 536 Left 2 !;ac lin 10 0.1 100
TEXT -472 744 Left 2 !.tran 0 2 1
TEXT -160 -184 Left 2 ;gain: 50
TEXT 712 528 Left 2 ;gain: 100 total
TEXT 144 624 Left 2 ;high pass (to remove DC)
TEXT 656 640 Left 2 ;low pass
