Version 4
SHEET 1 3556 760
WIRE 480 -64 208 -64
WIRE 944 -64 480 -64
WIRE 1424 -64 944 -64
WIRE 1952 -64 1424 -64
WIRE 2560 -64 1952 -64
WIRE 3168 -64 2560 -64
WIRE 352 64 272 64
WIRE 560 64 416 64
WIRE 816 64 736 64
WIRE 1024 64 880 64
WIRE 1296 64 1216 64
WIRE 1504 64 1360 64
WIRE 1840 64 1760 64
WIRE 2032 64 1920 64
WIRE 2448 64 2368 64
WIRE 2640 64 2528 64
WIRE 3056 64 2976 64
WIRE 3248 64 3136 64
WIRE -208 128 -240 128
WIRE -224 176 -288 176
WIRE 480 176 480 -64
WIRE 944 176 944 -64
WIRE 1424 176 1424 -64
WIRE 1952 176 1952 -64
WIRE 2560 176 2560 -64
WIRE 3168 176 3168 -64
WIRE -224 192 -224 176
WIRE -208 192 -224 192
WIRE 192 192 16 192
WIRE 272 192 272 64
WIRE 448 192 352 192
WIRE 656 192 576 192
WIRE 736 192 736 64
WIRE 912 192 816 192
WIRE 1136 192 1040 192
WIRE 1216 192 1216 64
WIRE 1392 192 1296 192
WIRE 1696 192 1520 192
WIRE 1760 192 1760 64
WIRE 1920 192 1824 192
WIRE 2304 192 2064 192
WIRE 2368 192 2368 64
WIRE 2528 192 2432 192
WIRE 2912 192 2672 192
WIRE 2976 192 2976 64
WIRE 3136 192 3040 192
WIRE 3520 192 3280 192
WIRE 560 208 560 64
WIRE 560 208 512 208
WIRE 576 208 576 192
WIRE 576 208 560 208
WIRE 1024 208 1024 64
WIRE 1024 208 976 208
WIRE 1040 208 1040 192
WIRE 1040 208 1024 208
WIRE 1504 208 1504 64
WIRE 1504 208 1456 208
WIRE 1520 208 1520 192
WIRE 1520 208 1504 208
WIRE 2032 208 2032 64
WIRE 2032 208 1984 208
WIRE 2064 208 2064 192
WIRE 2064 208 2032 208
WIRE 2640 208 2640 64
WIRE 2640 208 2592 208
WIRE 2672 208 2672 192
WIRE 2672 208 2640 208
WIRE 3248 208 3248 64
WIRE 3248 208 3200 208
WIRE 3280 208 3280 192
WIRE 3280 208 3248 208
WIRE 448 224 432 224
WIRE 912 224 896 224
WIRE 1392 224 1376 224
WIRE 1920 224 1904 224
WIRE 2528 224 2512 224
WIRE 3136 224 3120 224
WIRE 32 256 16 256
WIRE 432 288 432 224
WIRE 560 288 560 208
WIRE 560 288 432 288
WIRE 896 288 896 224
WIRE 1024 288 1024 208
WIRE 1024 288 896 288
WIRE 1376 288 1376 224
WIRE 1504 288 1504 208
WIRE 1504 288 1376 288
WIRE 1904 288 1904 224
WIRE 2032 288 1904 288
WIRE 2512 288 2512 224
WIRE 2640 288 2512 288
WIRE 3120 288 3120 224
WIRE 3248 288 3120 288
WIRE 480 368 480 240
WIRE 480 368 192 368
WIRE 944 368 944 240
WIRE 944 368 480 368
WIRE 1424 368 1424 240
WIRE 1424 368 944 368
WIRE 1424 416 1424 368
WIRE 1952 416 1952 240
WIRE 1952 416 1424 416
WIRE 2560 416 2560 240
WIRE 2560 416 1952 416
WIRE 3168 416 3168 240
WIRE 3168 416 2560 416
WIRE 192 432 192 368
FLAG 96 128 0
FLAG -288 256 0
FLAG 32 256 0
FLAG -240 128 0
FLAG -368 176 0
FLAG 208 -144 0
FLAG 192 512 0
FLAG 1296 256 0
FLAG 816 256 0
FLAG 352 256 0
FLAG 1824 272 0
FLAG 2032 368 0
FLAG 2432 272 0
FLAG 2640 368 0
FLAG 3040 272 0
FLAG 3248 368 0
SYMBOL LF356 480 272 M180
SYMATTR InstName U1
SYMBOL INA126 -96 160 R0
SYMATTR InstName U2
SYMBOL voltage 0 128 R270
WINDOW 0 32 56 VTop 2
WINDOW 3 -32 56 VBottom 2
WINDOW 123 0 0 Left 0
WINDOW 39 0 0 Left 0
SYMATTR InstName V1
SYMATTR Value 5
SYMBOL voltage -192 256 R90
WINDOW 0 -32 56 VBottom 2
WINDOW 3 32 56 VTop 2
WINDOW 123 0 0 Left 0
WINDOW 39 0 0 Left 0
SYMATTR InstName V2
SYMATTR Value -5
SYMBOL voltage -272 176 R90
WINDOW 0 -32 56 VBottom 2
WINDOW 3 32 56 VTop 2
WINDOW 123 60 56 VTop 2
WINDOW 39 0 0 Left 0
SYMATTR InstName V3
SYMATTR Value SINE(0 10u 15)
SYMATTR Value2 AC 1
SYMBOL res 288 176 R90
WINDOW 0 0 56 VBottom 2
WINDOW 3 32 56 VTop 2
SYMATTR InstName R1
SYMATTR Value 39.7k
SYMBOL res 368 176 R90
WINDOW 0 0 56 VBottom 2
WINDOW 3 32 56 VTop 2
SYMATTR InstName R2
SYMATTR Value 39.7k
SYMBOL cap 336 192 R0
SYMATTR InstName C1
SYMATTR Value 41.5n
SYMBOL cap 416 48 R90
WINDOW 0 0 32 VBottom 2
WINDOW 3 32 32 VTop 2
SYMATTR InstName C2
SYMATTR Value 620n
SYMBOL voltage 208 -48 R180
WINDOW 0 24 96 Left 2
WINDOW 3 24 16 Left 2
WINDOW 123 0 0 Left 0
WINDOW 39 0 0 Left 0
SYMATTR InstName V4
SYMATTR Value -5
SYMBOL voltage 192 416 R0
WINDOW 123 0 0 Left 0
WINDOW 39 0 0 Left 0
SYMATTR InstName V5
SYMATTR Value 5
SYMBOL LF356 944 272 M180
SYMATTR InstName U3
SYMBOL res 752 176 R90
WINDOW 0 0 56 VBottom 2
WINDOW 3 32 56 VTop 2
SYMATTR InstName R3
SYMATTR Value 7.66k
SYMBOL res 832 176 R90
WINDOW 0 0 56 VBottom 2
WINDOW 3 32 56 VTop 2
SYMATTR InstName R4
SYMATTR Value 137k
SYMBOL cap 800 192 R0
SYMATTR InstName C3
SYMATTR Value 62n
SYMBOL cap 880 48 R90
WINDOW 0 0 32 VBottom 2
WINDOW 3 32 32 VTop 2
SYMATTR InstName C4
SYMATTR Value 620n
SYMBOL LF356 1424 272 M180
SYMATTR InstName U4
SYMBOL res 1232 176 R90
WINDOW 0 0 56 VBottom 2
WINDOW 3 32 56 VTop 2
SYMATTR InstName R5
SYMATTR Value 5.46k
SYMBOL res 1312 176 R90
WINDOW 0 0 56 VBottom 2
WINDOW 3 32 56 VTop 2
SYMATTR InstName R6
SYMATTR Value 193k
SYMBOL cap 1280 192 R0
SYMATTR InstName C5
SYMATTR Value 62n
SYMBOL cap 1360 48 R90
WINDOW 0 0 32 VBottom 2
WINDOW 3 32 32 VTop 2
SYMATTR InstName C6
SYMATTR Value 620n
SYMBOL cap 1760 176 R90
WINDOW 0 0 32 VBottom 2
WINDOW 3 32 32 VTop 2
SYMATTR InstName C7
SYMATTR Value 10µ
SYMBOL cap 1824 176 R90
WINDOW 0 0 32 VBottom 2
WINDOW 3 32 32 VTop 2
SYMATTR InstName C8
SYMATTR Value 10µ
SYMBOL res 1808 176 R0
SYMATTR InstName R13
SYMATTR Value 11k
SYMBOL res 1936 48 R90
WINDOW 0 0 56 VBottom 2
WINDOW 3 32 56 VTop 2
SYMATTR InstName R14
SYMATTR Value 603k
SYMBOL LF356 1952 272 M180
SYMATTR InstName U8
SYMBOL res 2016 192 R0
SYMATTR InstName R17
SYMATTR Value 9.9k
SYMBOL res 2016 272 R0
SYMATTR InstName R18
SYMATTR Value 100
SYMBOL cap 2368 176 R90
WINDOW 0 0 32 VBottom 2
WINDOW 3 32 32 VTop 2
SYMATTR InstName C9
SYMATTR Value 10µ
SYMBOL cap 2432 176 R90
WINDOW 0 0 32 VBottom 2
WINDOW 3 32 32 VTop 2
SYMATTR InstName C10
SYMATTR Value 10µ
SYMBOL res 2416 176 R0
SYMATTR InstName R7
SYMATTR Value 15.3k
SYMBOL res 2544 48 R90
WINDOW 0 0 56 VBottom 2
WINDOW 3 32 56 VTop 2
SYMATTR InstName R8
SYMATTR Value 433k
SYMBOL LF356 2560 272 M180
SYMATTR InstName U5
SYMBOL res 2624 192 R0
SYMATTR InstName R9
SYMATTR Value 9.8k
SYMBOL res 2624 272 R0
SYMATTR InstName R10
SYMATTR Value 200
SYMBOL cap 2976 176 R90
WINDOW 0 0 32 VBottom 2
WINDOW 3 32 32 VTop 2
SYMATTR InstName C11
SYMATTR Value 10µ
SYMBOL cap 3040 176 R90
WINDOW 0 0 32 VBottom 2
WINDOW 3 32 32 VTop 2
SYMATTR InstName C12
SYMATTR Value 10µ
SYMBOL res 3024 176 R0
SYMATTR InstName R11
SYMATTR Value 45k
SYMBOL res 3152 48 R90
WINDOW 0 0 56 VBottom 2
WINDOW 3 32 56 VTop 2
SYMATTR InstName R12
SYMATTR Value 148k
SYMBOL LF356 3168 272 M180
SYMATTR InstName U6
SYMBOL res 3232 192 R0
SYMATTR InstName R15
SYMATTR Value 8k
SYMBOL res 3232 272 R0
SYMATTR InstName R16
SYMATTR Value 2k
TEXT -388 536 Left 2 !;ac lin 10 0.1 100
TEXT -472 744 Left 2 !.tran 0 2 1
